%mem=200MB
%chk=FHF.chk
%nprocshared=1
#p pm6 geom=connectivity force iop(2/29=1)

title

1 1
 O                  0.00011600   -0.00096100   -0.38656500
 H                 -0.85216300   -0.50636400   -0.15450800
 H                 -0.01100300    0.99054700   -0.15697900
 H                  0.86472300   -0.48657900   -0.15740000
 O                  2.21523000   -1.16319800    0.10996200
 O                 -2.11656300   -1.33418400    0.11001500
 O                 -0.09907100    2.49855000    0.10964100
 H                  2.47445300   -1.63658500    0.91221100
 H                  2.80572100   -1.44497200   -0.60258400
 H                 -2.65899200   -1.32143700    0.91029400
 H                 -2.65263900   -1.70648900   -0.60398200
 H                 -0.14949600    3.15051200   -0.60323100
 H                  0.18170100    2.95971100    0.91175400

 1
 2
 3
 4
 5 8 1.0 9 1.0
 6 10 1.0 11 1.0
 7 12 1.0 13 1.0
 8
 9
 10
 11
 12
 13

